AeroDynTorque.0.0.1
AeroDynTorque.0.0.2
AeroDynTorque.0.0.3
AeroDynTorque.0.0.4
AeroDynTorque.0.0.5
AeroDynTorque.0.0.6
AeroDynTorque.0.0.7
AeroDynTorque.0.0.8
AeroDynTorque.0.0.9
AeroDynTorque.0.0.10
AeroDynTorque.0.0.11
AeroDynTorque.0.0.12
AeroDynTorque.0.0.13
AeroDynTorque.0.0.14
AeroDynTorque.0.0.15
AeroDynTorque.0.0.16
AeroDynTorque.0.0.17
AeroDynTorque.0.0.18
AeroDynTorque.0.0.19
AeroDynTorque.0.0.20
